*
* PMOS model parameters
*
.model P pmos level=4
+ vfb = -0.22446 lvfb = -0.0964026 wvfb = 0.347014
+ phi = 0.656844 lphi = 1.93756e-24 wphi = -8.80914e-24
+ k1 = 0.469311 lk1 = 0.0562038 wk1 = -0.295342
+ k2 = 0.00611591 lk2 = 0.0577664 wk2 = -0.117079
+ eta = -0.0090263 leta = 0.0615109 weta = 0.0240505
+ muz = 218.087 dl = 0.62858 dw = -0.093967
+ u0 = 0.121741 lu0 = 0.0563167 wu0 = -0.0943975
+ u1 = 0.0200366 lu1 = 0.24261 wu1 = -0.0388792
+ x2mz = 8.69859 lx2mz = -3.48479 wx2mz = 4.78622
+ x2e = 0.000209692 lx2e = -0.00347381 wx2e = 6.88843e-05
+ x3e = 0.000860915 lx3e = -0.00397129 wx3e = -0.00481246
+ x2u0 = 0.0061785 lx2u0 = -0.00313591 wx2u0 = 0.00415546
+ x2u1 = 0.00089735 lx2u1 = 0.00204159 wx2u1 = 0.00128315
+ mus = 218.435 lmus = 136.974 wmus = -47.887
+ x2ms = 7.79896 lx2ms = 1.6967 wx2ms = 5.78466
+ x3ms = -1.41716 lx3ms = 14.7329 wx3ms = -4.12318
+ x3u1 = -0.0175494 lx3u1 = 0.00428688 wx3u1 = 0.00779273
+ tox = 0.0366 temp = 27 vdd = 5
+ cgdo = 4.4479e-10 cgso = 4.4479e-10 cgbo = 6.51738e-10
+ xpart = 1 
+ n0 = 1 ln0 = 0 wn0 = 0
+ nb = 0 lnb = 0 wnb = 0
+ nd = 0 lnd = 0 wnd = 0
+ rsh = 28.5 cj = 0.00040306 cjsw = 4.0419e-10
+ js = 0 pb = 0.8 pbsw = 0.8
+ mj = 0.4718 mjsw = 0.3308 wdf = 0
+ dell = 0

*
* NMOS model parameters
*
.model orbit_nm1_du1 nmos level=4
+ vfb = -1.57215 lvfb = 1.67982 wvfb = -0.793096
+ phi = 0.767126 lphi = -2.61745e-24 wphi = 1.17524e-23
+ k1 = 1.79144 lk1 = -1.6527 wk1 = 1.47764
+ k2 = 0.188776 lk2 = -0.315345 wk2 = 0.331758
+ eta = -0.0356512 leta = 0.0832908 weta = -0.00697853
+ muz = 634.62 dl = 0.168261 dw = -1.03259
+ u0 = 0.0607048 lu0 = 0.0628999 wu0 = -0.0441905
+ u1 = 1.45866 lu1 = -1.90555 wu1 = 1.18365
+ x2mz = 23.3789 lx2mz = -67.4064 wx2mz = 95.7687
+ x2e = -0.00749364 lx2e = 0.00759368 wx2e = -0.0155133
+ x3e = 0.00270795 lx3e = -0.00575405 wx3e = -0.00636971
+ x2u0 = 0.00754996 lx2u0 = -0.0310285 wx2u0 = 0.043499
+ x2u1 = 0.241537 lx2u1 = -0.533513 wx2u1 = 0.313763
+ mus = 606.509 lmus = 1071.48 wmus = -964.903
+ x2ms = 18.3981 lx2ms = -77.7652 wx2ms = 214.406
+ x3ms = -7.08345 lx3ms = 139.707 wx3ms = -73.9516
+ x3u1 = 0.0688466 lx3u1 = -0.0104964 wx3u1 = 0.0397963
+ tox = 0.0366 temp = 27 vdd = 5
+ cgdo = 1.19063e-10 cgso = 1.19063e-10 cgbo = 4.15815e-10
+ xpart = 1 
+ n0 = 1 ln0 = 0 wn0 = 0
+ nb = 0 lnb = 0 wnb = 0
+ nd = 0 lnd = 0 wnd = 0
+ rsh = 28.5 cj = 0.00040306 cjsw = 4.0419e-10
+ js = 0 pb = 0.8 pbsw = 0.8
+ mj = 0.4718 mjsw = 0.3308 wdf = 0
+ dell = 0

