SPICE deck generated by Crystal.

** The following lines define the nMOS models and Vdd.

.MODEL E NMOS(vto=.9 nsub=2E15 tox=.1u uo=800 xqc=.5
 +level=2 vmax=1e5 cgso=245p cgdo=245p)
.MODEL D NMOS(vto=-3.2 nsub=2E15 tox=.1u uo=800 xqc=.5
 +level=2 vmax=1e5 cgso=245p cgdo=245p)
.OPTIONS NOMOD
.WIDTH out=80
VBB 2 0 0
