SPICE vs. Crystal measurements

** The following lines define the nMOS models and Vdd.

.MODEL E NMOS(vto=.9 nsub=2E15 tox=.1u uo=800 xqc=.5
 +level=2 vmax=1e5 cgso=245p cgdo=245p)
.MODEL D NMOS(vto=-3.2 nsub=2E15 tox=.1u uo=800 xqc=.5
 +level=2 vmax=1e5 cgso=245p cgdo=245p)
.OPTIONS NOMOD
.WIDTH out=80

** The following lines define a simple circuit.  To
** try other circuits, replace the lines below with
** new ones.

r1 2 3 1000
r2 3 4 100
c1 3 0 10pf
c2 4 0 1pf
vin 2 0 pulse(0 5 0ns 0ns 0ns)
.tran .1ns 20ns
.print tran V(2) V(3)

.end
